Circuit: * Z:\home\esalazar\git\AnalogDream\spice\ad8221.asc

Direct Newton iteration failed to find .op point.  (Use ".option noopiter" to skip.)
Starting Gmin stepping
Gmin = 10
vernier = 0.5
Gmin = 1.67772
vernier = 0.25
vernier = 0.125
Gmin = 1.24103
vernier = 0.0625
vernier = 0.03125
Gmin = 1.19339
vernier = 0.0416667
vernier = 0.0208333
vernier = 0.0277778
vernier = 0.0138889
Gmin = 1.15876
vernier = 0.0185185
vernier = 0.00925925
Gmin = 1.13229
vernier = 0.0123457
vernier = 0.00617283
vernier = 0.00823044
Gmin = 1.1164
vernier = 0.00411522
vernier = 0.00548696
Gmin = 1.10612
vernier = 0.00731595
vernier = 0.00365797
Gmin = 1.09655
vernier = 0.0048773
vernier = 0.00243865
vernier = 0.00325153
Gmin = 1.09055
vernier = 0.00433537
vernier = 0.00216769
Gmin = 1.08496
vernier = 0.00289025
vernier = 0.00144512
Gmin = 1.08026
vernier = 0.00192683
vernier = 0.00256911
vernier = 0.00128455
Gmin = 1.07641
vernier = 0.00171274
Gmin = 1.07227
vernier = 0.00228365
vernier = 0.00114182
vernier = 0.00152243
Gmin = 1.06952
vernier = 0.00202991
vernier = 0.00101495
Gmin = 1.06695
vernier = 0.00135327
vernier = 0.00180436
vernier = 0.000902182
Gmin = 1.0643
vernier = 0.00120291
vernier = 0.00160388
Gmin = 1.06124
vernier = 0.000801939
vernier = 0.00106925
Gmin = 1.05947
vernier = 0.00142567
vernier = 0.000712834
vernier = 0.000950445
Gmin = 1.05771
vernier = 0.00126726
vernier = 0.00063363
Gmin = 1.05595
vernier = 0.00084484
vernier = 0.00112645
vernier = 0.000563226
Gmin = 1.05428
vernier = 0.000750968
Gmin = 1.05255
vernier = 0.00100129
vernier = 0.000500645
vernier = 0.000667527
Gmin = 1.05134
vernier = 0.000890036
vernier = 0.000445018
Gmin = 1.05018
vernier = 0.000593357
vernier = 0.000791143
vernier = 0.000593357
Gmin = 1.04897
vernier = 0.000791143
vernier = 0.000593357
Gmin = 1.04772
vernier = 0.000445018
vernier = 0.000593357
vernier = 0.000445018
Gmin = 1.04706
vernier = 0.000593357
vernier = 0.000445017
Gmin = 1.04613
vernier = 0.000593356
vernier = 0.000445017
vernier = 0.000593356
vernier = 0.000445017
Gmin = 1.04544
vernier = 0.000593356
vernier = 0.000445017
Gmin = 1.04451
vernier = 0.000593356
vernier = 0.000445017
vernier = 0.000593356
vernier = 0.000445017
Gmin = 1.04381
Gmin = 0
Gmin stepping failed

Starting source stepping with srcstepmethod=0
Source Step = 3.0303%
Source Step = 15.5777%
vernier = 0.00390625
Source Step = 15.5658%
Source Step = 15.5954%
Source Step = 15.625%
Source Step = 15.6546%
Source Step = 15.6842%
Source Step = 15.7138%
vernier = 0.00146484
Source Step = 15.7552%
Source Step = 15.7996%
Source Step = 15.844%
Source Step = 15.8884%
Source Step = 15.9328%
vernier = 0.00219727
Source Step = 15.9927%
Source Step = 16.0593%
Source Step = 16.1259%
Source Step = 16.1924%
Source Step = 16.259%
vernier = 0.0032959
Source Step = 16.3456%
Source Step = 16.4455%
Source Step = 16.5453%
Source Step = 16.6452%
Source Step = 16.7451%
vernier = 0.00494385
Source Step = 16.8699%
Source Step = 17.0197%
Source Step = 17.1696%
Source Step = 17.3194%
Source Step = 17.4692%
vernier = 0.00741577
Source Step = 17.649%
Source Step = 17.8737%
Source Step = 18.0984%
Source Step = 18.3231%
Source Step = 18.5478%
vernier = 0.0111237
Source Step = 18.8063%
Source Step = 19.1434%
Source Step = 19.4804%
Source Step = 19.8175%
Source Step = 20.1546%
vernier = 0.0166855
Source Step = 20.5254%
Source Step = 21.031%
Source Step = 21.5366%
Source Step = 22.0422%
Source Step = 22.5479%
vernier = 0.0250282
Source Step = 23.0788%
Source Step = 23.8372%
Source Step = 24.5956%
Source Step = 25.3541%
Source Step = 26.1125%
Source Step = 26.8709%
vernier = 0.0375423
Source Step = 28.0086%
Source Step = 29.1462%
Source Step = 30.2839%
Source Step = 31.4215%
Source Step = 32.5592%
vernier = 0.0563135
Source Step = 34.2087%
Source Step = 34.4914%
Source Step = 34.518%
Source Step = 34.5447%
Source Step = 34.5714%
Source Step = 34.598%
Source Step = 34.6247%
vernier = 0.00131985
Source Step = 34.6607%
Source Step = 34.7007%
Source Step = 34.7407%
Source Step = 34.7807%
Source Step = 34.8207%
vernier = 0.00197977
Source Step = 34.8727%
Source Step = 34.9327%
Source Step = 34.9927%
Source Step = 35.0526%
Source Step = 35.1126%
vernier = 0.00296966
Source Step = 35.1876%
Source Step = 35.2776%
Source Step = 35.3676%
Source Step = 35.4576%
Source Step = 35.5476%
vernier = 0.00445449
Source Step = 35.6556%
Source Step = 35.7906%
Source Step = 35.9255%
Source Step = 36.0605%
Source Step = 36.1955%
vernier = 0.00668173
Source Step = 36.3507%
Source Step = 36.5532%
Source Step = 36.7557%
Source Step = 36.9582%
Source Step = 37.1607%
vernier = 0.0100226
Source Step = 37.3834%
Source Step = 37.6871%
Source Step = 37.9908%
Source Step = 38.2945%
Source Step = 38.5982%
vernier = 0.0150339
Source Step = 38.9171%
Source Step = 39.3727%
Source Step = 39.8283%
Source Step = 40.2839%
Source Step = 40.7394%
Source Step = 41.195%
vernier = 0.0225508
Source Step = 41.8784%
Source Step = 42.5617%
Source Step = 43.2451%
Source Step = 43.9284%
Source Step = 44.6118%
vernier = 0.0338263
Source Step = 45.6027%
Source Step = 46.6277%
Source Step = 47.6527%
Source Step = 48.6778%
Source Step = 49.7028%
vernier = 0.0507394
Source Step = 51.1379%
Source Step = 52.6754%
Source Step = 53.9439%
Source Step = 54.2322%
Source Step = 54.3283%
Source Step = 54.4244%
Source Step = 54.5205%
Source Step = 54.6166%
Source Step = 54.7127%
vernier = 0.00475682
Source Step = 54.8328%
Source Step = 54.977%
Source Step = 55.1211%
Source Step = 55.2653%
Source Step = 55.4094%
vernier = 0.00713523
Source Step = 55.5824%
Source Step = 55.7986%
Source Step = 56.0148%
Source Step = 56.231%
Source Step = 56.4473%
vernier = 0.0107028
Source Step = 56.6959%
Source Step = 57.0202%
Source Step = 57.3446%
Source Step = 57.6689%
Source Step = 57.9932%
vernier = 0.0160543
Source Step = 58.35%
Source Step = 58.8365%
Source Step = 59.323%
Source Step = 59.8095%
Source Step = 60.2959%
vernier = 0.0240814
Source Step = 60.8068%
Source Step = 61.5365%
Source Step = 62.2662%
Source Step = 62.996%
Source Step = 63.7257%
Source Step = 64.4555%
vernier = 0.0361221
Source Step = 65.5501%
Source Step = 66.6447%
Source Step = 66.9457%
Source Step = 67.0141%
Source Step = 67.0825%
Source Step = 67.1509%
Source Step = 67.2193%
Source Step = 67.2878%
vernier = 0.00338645
Source Step = 67.3699%
Source Step = 67.4725%
Source Step = 67.5751%
Source Step = 67.6777%
Source Step = 67.7803%
vernier = 0.00507967
Source Step = 67.8983%
Source Step = 68.0523%
Source Step = 68.2062%
Source Step = 68.3601%
Source Step = 68.5141%
vernier = 0.0076195
Source Step = 68.6834%
Source Step = 68.9143%
Source Step = 69.1452%
Source Step = 69.3761%
Source Step = 69.5492%
Source Step = 69.607%
Source Step = 69.6647%
Source Step = 69.7224%
Source Step = 69.7801%
Source Step = 69.8379%
vernier = 0.00285731
Source Step = 69.9187%
Source Step = 70.0053%
Source Step = 70.0918%
Source Step = 70.1784%
Source Step = 70.265%
vernier = 0.00428597
Source Step = 70.3819%
vernier = 0.00107149
Source Step = 70.4014%
Starting source stepping with srcstepmethod=1
Source Step = 3.0303%
Source Step = 33.3333%
Source Step = 63.6364%
Source Step = 93.9394%
Source Step = 100%
Source Step = 100%
Source Step = 99.0118%
Source Step = 99.0414%
Source Step = 99.071%
Source Step = 99.1006%
Source Step = 99.1302%
Source Step = 99.1598%
Source Step = 99.1894%
Source Step = 99.219%
Source Step = 99.2486%
Source Step = 99.2782%
Source Step = 99.3078%
Source Step = 99.3374%
Source Step = 99.367%
Source Step = 99.3965%
Source Step = 99.4261%
Source stepping aborted.
Pseudo Transient failed in finding the operating point.
Trouble finding operating point....skipping operating point for Transient analysis.
Changing Tseed to 9.76562e-008
Changing Tseed to 9.76562e-010

Date: Sun Nov 27 18:09:35 2011
Total elapsed time: 72.101 seconds.

tnom = 27
temp = 27
method = modified trap
totiter = 4724751
traniter = 4579425
tranpoints = 1535163
accept = 1116479
rejected = 432111
matrix size = 98
fillins = 230
solver = Normal
Thread vector: 25.7/19.0[2] 2.4/1.6[2] 3.0/2.6[2] 1.4/2.5[1]  2592/500
Matrix Compiler1: 13.1 KB object code size  3.0/1.4/[0.7]
Matrix Compiler2: 11.0 KB object code size  3.0/3.9/[2.3]


